{
  "@context": {
    "biotools": "https://bio.tools/ontology/",
    "bsc": "http://bioschemas.org/",
    "edam": "http://edamontology.org/",
    "rdf": "http://www.w3.org/1999/02/22-rdf-syntax-ns#",
    "rdfs": "http://www.w3.org/2000/01/rdf-schema#",
    "sc": "http://schema.org/",
    "xsd": "http://www.w3.org/2001/XMLSchema#"
  },
  "@id": "https://bio.tools/QGIS",
  "@type": "sc:SoftwareApplication",
  "sc:description": "including capabilities of MODFLOW-OWHM in the FREEWAT GIS modelling environment.\n\nObservation analysis tool for the FREEWAT GIS environment for water resources management.\n\nQGIS plugin or web app? Lessons learned in the development of a 3D georeferencer.\n\nCome along to 's-Hertogenbosch, The Netherlands to find out more about QGIS!.\n\nA Free and Open Source Geographic Information System.\n\nGet the installer or packages for your Operating System!.\n\n||| CORRECT NAME OF TOOL COULD ALSO BE 'QGIS FREEWAT', 'Open Source Water Management', 'FREEWAT', 'MODFLOW-OWHM', 'time-series', 'hydro-chemical', 'plugin', 'QGIS plugin'",
  "sc:name": "QGIS",
  "sc:url": "http://qgis.osgeo.org"
}